test/data/r1_12_47_2/result.csv
# result.csv run at 2000-01-01 00:00:00 EST on 2082 powerflow objects (not all are nodes)
node_name,voltA_real,voltA_imag,voltB_real,voltB_imag,voltC_real,voltC_imag
cap_1,7190.581337,-51.641893,-3625.903375,-6138.666954,-3451.596080,6246.644655
load_1,277.098908,-0.111107,-138.609268,-239.902815,-124.425437,243.742413
load_2,277.022654,-0.492089,-138.901136,-239.646280,-138.036084,240.116133
load_3,277.005425,-0.421275,-138.765138,-239.767384,-137.950569,240.125546
load_4,276.486520,-2.715643,0.000000,0.000000,0.000000,0.000000
load_5,276.694676,-1.278463,0.000000,0.000000,0.000000,0.000000
load_6,276.130669,-3.688986,0.000000,0.000000,0.000000,0.000000
load_7,276.334764,-2.830904,0.000000,0.000000,0.000000,0.000000
load_8,0.000000,0.000000,-143.559149,-233.800118,0.000000,0.000000
load_9,0.000000,0.000000,-140.411791,-236.935863,0.000000,0.000000
load_10,276.378701,-3.588235,-140.413502,-236.299832,-134.522021,240.295212
load_11,276.275778,-4.017759,0.000000,0.000000,0.000000,0.000000
load_12,274.685612,-10.038446,0.000000,0.000000,0.000000,0.000000
load_13,275.622723,-6.603222,0.000000,0.000000,0.000000,0.000000
meter_1,277.098908,-0.111107,-138.609268,-239.902815,-124.425437,243.742413
meter_2,277.022654,-0.492089,-138.901136,-239.646280,-138.036084,240.116133
meter_3,277.005425,-0.421275,-138.765138,-239.767384,-137.950569,240.125546
meter_4,276.486520,-2.715643,0.000000,0.000000,0.000000,0.000000
meter_5,276.694676,-1.278463,0.000000,0.000000,0.000000,0.000000
meter_6,276.130669,-3.688986,0.000000,0.000000,0.000000,0.000000
meter_7,276.334764,-2.830904,0.000000,0.000000,0.000000,0.000000
meter_8,0.000000,0.000000,-143.559149,-233.800118,0.000000,0.000000
meter_9,0.000000,0.000000,-140.411791,-236.935863,0.000000,0.000000
meter_10,276.378701,-3.588235,-140.413502,-236.299832,-134.522021,240.295212
meter_11,276.275778,-4.017759,0.000000,0.000000,0.000000,0.000000
meter_12,274.685612,-10.038446,0.000000,0.000000,0.000000,0.000000
meter_13,275.622723,-6.603222,0.000000,0.000000,0.000000,0.000000
meter_14,7199.987808,-0.001477,-3599.994887,-6234.989023,-3599.990928,6234.986562
node_1,7199.974139,0.009237,-3599.978797,-6234.983159,-3599.995293,6234.964051
node_2,7199.953911,-0.071802,-3600.036112,-6234.924016,-3599.887889,6234.989046
node_3,7199.101771,-2.389746,-3600.864504,-6232.470283,-3595.775898,6234.945454
node_4,7198.800669,-2.888489,-3600.954156,-6232.475450,-3595.626599,6234.785039
node_5,7198.798716,-2.886469,-3600.953267,-6232.475217,-3595.626903,6234.783947
node_6,7198.798145,-2.885896,-3600.952485,-6232.475010,-3595.627114,6234.783166
node_7,7197.990356,-3.501988,-3601.033991,-6232.681056,-3595.625772,6234.479271
node_8,7197.989079,-3.500652,0.000000,0.000000,0.000000,0.000000
node_9,7197.887516,-3.577294,0.000000,0.000000,0.000000,0.000000
node_10,7195.910674,-5.077094,0.000000,0.000000,0.000000,0.000000
node_11,7195.910567,-5.076982,0.000000,0.000000,0.000000,0.000000
node_12,7195.284701,-5.552281,0.000000,0.000000,0.000000,0.000000
node_13,7195.284381,-5.551946,0.000000,0.000000,0.000000,0.000000
node_14,7194.193177,-6.381735,0.000000,0.000000,0.000000,0.000000
node_15,7194.141048,-6.420868,0.000000,0.000000,0.000000,0.000000
node_16,7194.083142,-6.464874,0.000000,0.000000,0.000000,0.000000
node_17,7198.460512,-5.719437,-3602.492974,-6226.306711,-3586.228757,6235.630416
node_18,7196.948691,-13.948971,-3606.452228,-6211.180657,-3562.630041,6237.336052
node_19,0.000000,0.000000,0.000000,0.000000,-3562.630077,6237.335932
node_20,0.000000,0.000000,0.000000,0.000000,-3562.630077,6237.335932
node_21,7194.987467,-25.041111,-3612.102660,-6189.794318,-3529.874041,6239.977632
node_22,0.000000,0.000000,-3612.102520,-6189.794287,0.000000,0.000000
node_23,0.000000,0.000000,-3612.137662,-6189.464570,0.000000,0.000000
node_24,7192.841536,-37.353506,-3618.086287,-6167.352145,-3494.770012,6242.669350
node_25,7192.841347,-37.353303,0.000000,0.000000,0.000000,0.000000
node_26,7192.741334,-37.422023,0.000000,0.000000,0.000000,0.000000
node_27,7192.632843,-37.500461,0.000000,0.000000,0.000000,0.000000
node_28,7191.337942,-49.675778,-3624.461752,-6142.135361,-3455.682257,6246.115560
node_29,0.000000,0.000000,-3624.461534,-6142.135326,-3455.682959,6246.113316
node_30,0.000000,0.000000,-3622.564542,-6141.144531,-3448.924150,6241.648457
node_31,0.000000,0.000000,0.000000,0.000000,-3448.924150,6241.648457
node_32,0.000000,0.000000,-3617.185411,-6138.335020,-3429.758803,6228.987859
node_33,0.000000,0.000000,-3616.299449,-6137.421016,-3426.680413,6227.744777
node_34,0.000000,0.000000,-3616.299394,-6137.421005,0.000000,0.000000
node_35,0.000000,0.000000,0.000000,0.000000,-3426.680451,6227.744655
node_36,0.000000,0.000000,0.000000,0.000000,-3425.877110,6227.204789
node_37,0.000000,0.000000,0.000000,0.000000,-3425.877133,6227.204716
node_38,0.000000,0.000000,0.000000,0.000000,-3425.791831,6227.147463
node_39,0.000000,0.000000,0.000000,0.000000,-3426.086558,6227.360121
node_40,0.000000,0.000000,0.000000,0.000000,-3426.086595,6227.360000
node_41,0.000000,0.000000,0.000000,0.000000,-3424.899612,6226.833730
node_42,0.000000,0.000000,0.000000,0.000000,-3424.865655,6226.818272
node_43,0.000000,0.000000,0.000000,0.000000,-3424.899669,6226.833548
node_44,0.000000,0.000000,0.000000,0.000000,-3424.865693,6226.818151
node_45,0.000000,0.000000,0.000000,0.000000,-3424.286023,6226.561373
node_46,0.000000,0.000000,0.000000,0.000000,-3424.286061,6226.561251
node_47,0.000000,0.000000,0.000000,0.000000,-3423.860351,6226.372357
node_48,0.000000,0.000000,0.000000,0.000000,-3423.760906,6226.328047
node_49,0.000000,0.000000,0.000000,0.000000,-3423.772627,6226.333429
node_50,0.000000,0.000000,0.000000,0.000000,-3423.772665,6226.333308
node_51,0.000000,0.000000,0.000000,0.000000,-3423.186016,6226.073065
node_52,0.000000,0.000000,0.000000,0.000000,-3423.186054,6226.072943
node_53,0.000000,0.000000,0.000000,0.000000,-3423.186054,6226.072943
node_54,7190.581337,-51.641893,-3625.903375,-6138.666954,-3451.596080,6246.644655
node_55,7190.574392,-51.633954,-3625.889450,-6138.664600,-3451.600983,6246.630327
node_56,7188.348031,-54.176730,-3627.194429,-6132.455801,-3444.997855,6246.323615
node_57,7174.088188,-62.256840,-3625.666448,-6102.710013,-3416.871551,6236.442296
node_58,0.000000,0.000000,-3625.663526,-6102.709444,0.000000,0.000000
node_59,0.000000,0.000000,-3607.738544,-5913.325604,0.000000,0.000000
node_60,0.000000,0.000000,-3607.739840,-5913.309385,0.000000,0.000000
node_61,0.000000,0.000000,-3607.605166,-5911.916634,0.000000,0.000000
node_62,0.000000,0.000000,-3607.604884,-5911.916578,0.000000,0.000000
node_63,0.000000,0.000000,-3607.507813,-5911.521305,0.000000,0.000000
node_64,0.000000,0.000000,-3607.503700,-5911.504544,0.000000,0.000000
node_65,0.000000,0.000000,-3607.466347,-5911.352098,0.000000,0.000000
node_66,0.000000,0.000000,-3607.503965,-5911.505643,0.000000,0.000000
node_67,0.000000,0.000000,-3606.125101,-5896.341133,0.000000,0.000000
node_68,0.000000,0.000000,-3606.125044,-5896.341122,0.000000,0.000000
node_69,0.000000,0.000000,-3605.430245,-5889.032310,0.000000,0.000000
node_70,0.000000,0.000000,-3605.410484,-5888.818127,0.000000,0.000000
node_71,0.000000,0.000000,-3605.427895,-5889.007553,0.000000,0.000000
node_72,0.000000,0.000000,-3606.003729,-5881.694444,0.000000,0.000000
node_73,0.000000,0.000000,-3606.026281,-5881.411969,0.000000,0.000000
node_74,0.000000,0.000000,-3606.026224,-5881.411958,0.000000,0.000000
node_75,0.000000,0.000000,-3607.000192,-5868.930930,0.000000,0.000000
node_76,0.000000,0.000000,-3607.000135,-5868.930919,0.000000,0.000000
node_77,0.000000,0.000000,-3607.151232,-5866.995677,0.000000,0.000000
node_78,0.000000,0.000000,-3607.153815,-5866.958606,0.000000,0.000000
node_79,0.000000,0.000000,-3607.153701,-5866.958584,0.000000,0.000000
node_80,0.000000,0.000000,-3607.405027,-5863.742330,0.000000,0.000000
node_81,0.000000,0.000000,-3607.400371,-5863.693365,0.000000,0.000000
node_82,0.000000,0.000000,-3607.400314,-5863.693354,0.000000,0.000000
node_83,0.000000,0.000000,-3607.400314,-5863.693354,0.000000,0.000000
node_84,0.000000,0.000000,-3607.672804,-5860.309267,0.000000,0.000000
node_85,0.000000,0.000000,-3607.671587,-5860.309031,0.000000,0.000000
node_86,0.000000,0.000000,-3607.670870,-5860.308892,0.000000,0.000000
node_87,0.000000,0.000000,-3607.637836,-5860.176240,0.000000,0.000000
node_88,0.000000,0.000000,-3607.542819,-5859.796081,0.000000,0.000000
node_89,0.000000,0.000000,-3607.639332,-5858.387794,0.000000,0.000000
node_90,0.000000,0.000000,-3607.639019,-5858.387733,0.000000,0.000000
node_91,0.000000,0.000000,-3607.612468,-5858.281178,0.000000,0.000000
node_92,0.000000,0.000000,-3607.570171,-5858.111442,0.000000,0.000000
node_93,0.000000,0.000000,-3607.703372,-5857.450092,0.000000,0.000000
node_94,0.000000,0.000000,-3607.705960,-5857.412307,0.000000,0.000000
node_95,0.000000,0.000000,-3607.703258,-5857.450070,0.000000,0.000000
node_96,0.000000,0.000000,-3607.671530,-5860.309020,0.000000,0.000000
node_97,0.000000,0.000000,-3607.753073,-5859.265128,0.000000,0.000000
node_98,0.000000,0.000000,-3607.760989,-5859.163411,0.000000,0.000000
node_99,0.000000,0.000000,-3607.835048,-5858.226308,0.000000,0.000000
node_100,0.000000,0.000000,-3607.764909,-5859.109279,0.000000,0.000000
node_101,0.000000,0.000000,-3607.732516,-5859.542642,0.000000,0.000000
node_102,0.000000,0.000000,-3607.764795,-5859.109256,0.000000,0.000000
node_103,0.000000,0.000000,-3607.732459,-5859.542631,0.000000,0.000000
node_104,0.000000,0.000000,-3608.203927,-5853.490553,0.000000,0.000000
node_105,0.000000,0.000000,-3607.834991,-5858.226297,0.000000,0.000000
node_106,0.000000,0.000000,-3608.229272,-5853.163567,0.000000,0.000000
node_107,0.000000,0.000000,-3608.329453,-5851.867458,0.000000,0.000000
node_108,0.000000,0.000000,-3608.329396,-5851.867447,0.000000,0.000000
node_109,0.000000,0.000000,-3608.361840,-5851.448586,0.000000,0.000000
node_110,0.000000,0.000000,-3608.361783,-5851.448575,0.000000,0.000000
node_111,7174.084716,-62.252870,-3625.662406,-6102.709404,-3416.874003,6236.435131
node_112,7174.052080,-62.269247,0.000000,0.000000,0.000000,0.000000
node_113,7174.052026,-62.269191,0.000000,0.000000,0.000000,0.000000
node_114,7164.482441,-72.807095,-3621.088686,-6090.437722,-3389.591640,6224.203814
node_115,7164.482335,-72.806981,0.000000,0.000000,0.000000,0.000000
node_116,7162.065888,-75.544140,-3619.798353,-6087.166152,-3382.173510,6220.946663
node_117,0.000000,0.000000,-3619.715899,-6086.950394,0.000000,0.000000
node_118,7153.881759,-85.531599,-3615.331998,-6077.315256,-3356.148921,6209.195815
node_119,7153.878507,-85.527934,-3615.331612,-6077.315209,0.000000,0.000000
node_120,7153.696372,-85.532879,-3615.376329,-6076.991368,0.000000,0.000000
node_121,7144.478805,-89.857857,-3616.148437,-6079.178173,0.000000,0.000000
node_122,0.000000,0.000000,-3616.144610,-6079.130934,0.000000,0.000000
node_123,0.000000,0.000000,-3616.144610,-6079.130934,0.000000,0.000000
node_124,7122.686637,-99.963898,-3618.125511,-6083.786236,0.000000,0.000000
node_125,7122.267529,-100.123239,-3618.145329,-6083.681866,0.000000,0.000000
node_126,7115.922412,-103.124731,0.000000,0.000000,0.000000,0.000000
node_127,7108.201924,-106.941635,0.000000,0.000000,0.000000,0.000000
node_128,7107.962451,-107.059078,0.000000,0.000000,0.000000,0.000000
node_129,7107.962850,-107.059510,0.000000,0.000000,0.000000,0.000000
node_130,7107.938427,-107.066712,0.000000,0.000000,0.000000,0.000000
node_131,7107.510823,-107.445271,0.000000,0.000000,0.000000,0.000000
node_132,7106.298797,-107.589559,0.000000,0.000000,0.000000,0.000000
node_133,7111.440299,-105.002952,0.000000,0.000000,0.000000,0.000000
node_134,7105.887439,-107.721099,0.000000,0.000000,0.000000,0.000000
node_135,7111.440139,-105.002780,0.000000,0.000000,0.000000,0.000000
node_136,7104.088282,-108.293743,0.000000,0.000000,0.000000,0.000000
node_137,7111.122185,-105.159315,0.000000,0.000000,0.000000,0.000000
node_138,7111.019474,-105.209787,0.000000,0.000000,0.000000,0.000000
node_139,7110.996278,-105.221212,0.000000,0.000000,0.000000,0.000000
node_140,7110.996225,-105.221154,0.000000,0.000000,0.000000,0.000000
node_141,7115.920696,-103.122800,0.000000,0.000000,0.000000,0.000000
node_142,7115.920643,-103.122743,0.000000,0.000000,0.000000,0.000000
node_143,7107.665684,-106.991408,0.000000,0.000000,0.000000,0.000000
node_144,7107.381743,-107.131402,0.000000,0.000000,0.000000,0.000000
node_145,7107.381690,-107.131345,0.000000,0.000000,0.000000,0.000000
node_146,7095.125451,-115.731719,0.000000,0.000000,0.000000,0.000000
node_147,7095.074230,-115.748013,0.000000,0.000000,0.000000,0.000000
node_148,7090.707306,-118.802617,0.000000,0.000000,0.000000,0.000000
node_149,7090.408341,-118.897966,0.000000,0.000000,0.000000,0.000000
node_150,7090.706241,-118.801463,0.000000,0.000000,0.000000,0.000000
node_151,7090.630485,-118.825525,0.000000,0.000000,0.000000,0.000000
node_152,7089.900146,-119.057300,0.000000,0.000000,0.000000,0.000000
node_153,7089.790017,-119.092089,0.000000,0.000000,0.000000,0.000000
node_154,7089.813169,-119.084923,0.000000,0.000000,0.000000,0.000000
node_155,7089.546968,-119.169520,0.000000,0.000000,0.000000,0.000000
node_156,7089.462702,-119.196281,0.000000,0.000000,0.000000,0.000000
node_157,7089.482539,-119.189981,0.000000,0.000000,0.000000,0.000000
node_158,7089.179013,-119.286520,0.000000,0.000000,0.000000,0.000000
node_159,7085.823173,-120.364553,0.000000,0.000000,0.000000,0.000000
node_160,7085.539145,-120.455077,0.000000,0.000000,0.000000,0.000000
node_161,7085.340716,-120.518052,0.000000,0.000000,0.000000,0.000000
node_162,7085.141063,-120.582488,0.000000,0.000000,0.000000,0.000000
node_163,7081.292363,-121.821283,0.000000,0.000000,0.000000,0.000000
node_164,0.000000,0.000000,0.000000,0.000000,-3356.149542,6209.193888
node_165,0.000000,0.000000,0.000000,0.000000,-3356.149620,6209.193645
node_166,0.000000,0.000000,0.000000,0.000000,-3345.952878,6204.567739
node_167,0.000000,0.000000,0.000000,0.000000,-3345.624157,6204.418575
node_168,0.000000,0.000000,0.000000,0.000000,-3345.953272,6204.566519
node_169,0.000000,0.000000,0.000000,0.000000,-3345.834355,6204.456151
node_170,0.000000,0.000000,0.000000,0.000000,-3345.924072,6204.539401
node_171,0.000000,0.000000,0.000000,0.000000,-3343.730081,6202.501402
node_172,0.000000,0.000000,0.000000,0.000000,-3343.569250,6202.352090
node_173,0.000000,0.000000,0.000000,0.000000,-3342.453930,6201.315893
node_174,0.000000,0.000000,0.000000,0.000000,-3342.373265,6201.240945
node_175,0.000000,0.000000,0.000000,0.000000,-3342.269382,6201.144536
node_176,0.000000,0.000000,0.000000,0.000000,-3341.349720,6200.290047
node_177,0.000000,0.000000,0.000000,0.000000,-3341.308563,6200.251802
node_178,0.000000,0.000000,0.000000,0.000000,-3341.286141,6200.230966
node_179,0.000000,0.000000,0.000000,0.000000,-3340.947093,6199.916051
node_180,0.000000,0.000000,0.000000,0.000000,-3340.911751,6199.883208
node_181,0.000000,0.000000,0.000000,0.000000,-3340.833532,6199.810589
node_182,0.000000,0.000000,0.000000,0.000000,-3340.855332,6199.830834
node_183,7155.037516,-84.606236,-3614.230801,-6074.164256,-3351.483059,6208.395427
node_184,0.000000,0.000000,-3611.941813,-6069.463763,-3345.571710,6204.616302
node_185,0.000000,0.000000,-3610.278735,-6066.099901,-3341.255463,6201.851402
node_186,0.000000,0.000000,0.000000,0.000000,-3341.255503,6201.851280
node_187,0.000000,0.000000,-3607.971896,-6061.350866,-3335.317030,6198.054210
node_188,0.000000,0.000000,0.000000,0.000000,-3335.317069,6198.054088
node_189,0.000000,0.000000,-3598.558732,-6041.441245,-3311.147200,6182.610836
node_190,0.000000,0.000000,0.000000,0.000000,-3311.147856,6182.608978
node_191,0.000000,0.000000,0.000000,0.000000,-3311.055096,6182.495367
node_192,0.000000,0.000000,0.000000,0.000000,-3310.406925,6181.918055
node_193,0.000000,0.000000,0.000000,0.000000,-3310.095639,6181.628344
node_194,0.000000,0.000000,0.000000,0.000000,-3309.815362,6181.365595
node_195,0.000000,0.000000,0.000000,0.000000,-3309.869375,6181.416053
node_196,0.000000,0.000000,0.000000,0.000000,-3309.869375,6181.416053
node_197,0.000000,0.000000,0.000000,0.000000,-3309.012548,6180.615524
node_198,0.000000,0.000000,0.000000,0.000000,-3308.923754,6180.532620
node_199,0.000000,0.000000,0.000000,0.000000,-3308.410843,6180.055350
node_200,0.000000,0.000000,0.000000,0.000000,-3307.531677,6179.231702
node_201,0.000000,0.000000,0.000000,0.000000,-3307.385028,6179.094664
node_202,0.000000,0.000000,0.000000,0.000000,-3307.409642,6179.117665
node_203,0.000000,0.000000,0.000000,0.000000,-3307.430106,6179.136784
node_204,0.000000,0.000000,0.000000,0.000000,-3307.318122,6179.032140
node_205,0.000000,0.000000,0.000000,0.000000,-3307.299228,6179.014477
node_206,0.000000,0.000000,0.000000,0.000000,-3306.880746,6178.623399
node_207,0.000000,0.000000,0.000000,0.000000,-3307.299228,6179.014477
node_208,0.000000,0.000000,-3594.629461,-6029.389472,-3302.864071,6177.855983
node_209,0.000000,0.000000,-3594.629405,-6029.389461,0.000000,0.000000
node_210,0.000000,0.000000,0.000000,0.000000,-3302.431392,6177.559006
node_211,0.000000,0.000000,0.000000,0.000000,-3302.431552,6177.558516
node_212,0.000000,0.000000,0.000000,0.000000,-3302.404250,6177.532977
node_213,0.000000,0.000000,0.000000,0.000000,-3302.381272,6177.511483
node_214,0.000000,0.000000,0.000000,0.000000,-3302.184049,6177.327821
node_215,0.000000,0.000000,-3592.165706,-6020.978118,-3298.146979,6175.270295
node_216,0.000000,0.000000,-3592.165651,-6020.978107,-3298.146998,6175.270276
node_217,0.000000,0.000000,-3590.796433,-6016.335243,-3295.501297,6173.837101
node_218,0.000000,0.000000,-3590.778790,-6016.312316,-3295.446082,6173.800620
node_219,0.000000,0.000000,-3583.580416,-5986.831614,0.000000,0.000000
node_220,0.000000,0.000000,-3583.337545,-5990.523694,-3281.434459,6166.315725
node_221,0.000000,0.000000,-3583.593198,-5986.885654,0.000000,0.000000
node_222,0.000000,0.000000,-3583.317975,-5990.287102,0.000000,0.000000
node_223,0.000000,0.000000,-3583.317466,-5990.286996,0.000000,0.000000
node_224,0.000000,0.000000,-3583.463898,-5988.480304,0.000000,0.000000
node_225,0.000000,0.000000,-3583.310362,-5990.256923,0.000000,0.000000
node_226,0.000000,0.000000,-3583.443883,-5988.395748,0.000000,0.000000
node_227,0.000000,0.000000,-3583.649898,-5986.186509,0.000000,0.000000
node_228,0.000000,0.000000,-3583.609897,-5986.017918,0.000000,0.000000
node_229,0.000000,0.000000,-3583.525640,-5985.659307,0.000000,0.000000
node_230,0.000000,0.000000,-3583.504467,-5985.569476,0.000000,0.000000
node_231,0.000000,0.000000,-3580.133041,-5980.712585,-3274.735345,6162.514699
node_232,0.000000,0.000000,-3580.130846,-5980.686090,0.000000,0.000000
node_233,0.000000,0.000000,-3580.130790,-5980.686078,0.000000,0.000000
node_234,0.000000,0.000000,-3573.373474,-5960.417109,-3260.437139,6154.348170
node_235,0.000000,0.000000,-3573.367373,-5960.343981,0.000000,0.000000
node_236,0.000000,0.000000,-3573.367317,-5960.343969,0.000000,0.000000
node_237,0.000000,0.000000,-3568.965350,-5947.446249,-3251.001654,6148.923707
node_238,0.000000,0.000000,0.000000,0.000000,-3250.913263,6148.882731
node_239,0.000000,0.000000,0.000000,0.000000,-3250.913304,6148.882608
node_240,0.000000,0.000000,0.000000,0.000000,-3250.913304,6148.882608
node_241,0.000000,0.000000,-3564.940780,-5933.892478,-3243.062697,6144.576016
node_242,0.000000,0.000000,0.000000,0.000000,-3240.580793,6143.425384
node_243,0.000000,0.000000,0.000000,0.000000,-3240.581038,6143.424644
node_244,0.000000,0.000000,0.000000,0.000000,-3240.238058,6143.101421
node_245,0.000000,0.000000,0.000000,0.000000,-3239.641108,6142.535568
node_246,0.000000,0.000000,0.000000,0.000000,-3239.571828,6142.470040
node_247,0.000000,0.000000,0.000000,0.000000,-3239.020872,6141.948862
node_248,0.000000,0.000000,0.000000,0.000000,-3238.848250,6141.785573
node_249,0.000000,0.000000,0.000000,0.000000,-3238.870659,6141.806771
node_250,0.000000,0.000000,-3563.891942,-5927.284117,-3242.478369,6144.738744
node_251,0.000000,0.000000,0.000000,0.000000,-3242.340643,6144.643012
node_252,0.000000,0.000000,0.000000,0.000000,-3242.340684,6144.642889
node_253,0.000000,0.000000,-3563.438037,-5924.142921,-3242.367446,6144.932585
node_254,0.000000,0.000000,-3563.431302,-5924.063793,0.000000,0.000000
node_255,0.000000,0.000000,-3563.431132,-5924.063758,0.000000,0.000000
node_256,0.000000,0.000000,-3563.406803,-5923.961939,0.000000,0.000000
node_257,0.000000,0.000000,-3563.395738,-5923.915630,0.000000,0.000000
node_258,0.000000,0.000000,-3562.552576,-5918.243715,-3242.062568,6145.231110
node_259,0.000000,0.000000,-3562.584556,-5917.879703,0.000000,0.000000
node_260,0.000000,0.000000,-3562.527171,-5917.640987,0.000000,0.000000
node_261,0.000000,0.000000,-3562.486906,-5917.472740,0.000000,0.000000
node_262,0.000000,0.000000,-3562.473517,-5917.416498,0.000000,0.000000
node_263,0.000000,0.000000,-3562.120206,-5915.226628,-3241.930741,6145.396540
node_264,0.000000,0.000000,-3561.706055,-5912.336673,-3241.804470,6145.554999
node_265,0.000000,0.000000,-3561.423088,-5912.197465,-3241.007978,6145.023944
node_266,0.000000,0.000000,0.000000,0.000000,-3241.007978,6145.023944
node_267,0.000000,0.000000,-3561.324525,-5912.184222,-3240.646547,6144.772428
node_268,0.000000,0.000000,0.000000,0.000000,-3240.646588,6144.772304
node_269,0.000000,0.000000,-3554.142034,-5880.998866,-3239.798523,6143.657299
node_270,0.000000,0.000000,0.000000,0.000000,-3239.096016,6142.992702
node_271,0.000000,0.000000,-3542.571524,-5833.062130,0.000000,0.000000
node_272,0.000000,0.000000,-3542.335077,-5830.357516,0.000000,0.000000
node_273,0.000000,0.000000,-3542.333869,-5830.357272,0.000000,0.000000
node_274,0.000000,0.000000,-3542.311080,-5830.105135,0.000000,0.000000
node_275,0.000000,0.000000,-3542.333186,-5830.357135,0.000000,0.000000
node_276,0.000000,0.000000,-3542.332585,-5830.357014,0.000000,0.000000
node_277,0.000000,0.000000,-3542.326020,-5830.330008,0.000000,0.000000
node_278,0.000000,0.000000,-3542.087729,-5829.349769,0.000000,0.000000
node_279,0.000000,0.000000,-3542.087729,-5829.349769,0.000000,0.000000
node_280,0.000000,0.000000,-3542.020728,-5829.073154,0.000000,0.000000
node_281,0.000000,0.000000,-3541.837011,-5828.319390,0.000000,0.000000
node_282,0.000000,0.000000,-3541.817605,-5828.239581,0.000000,0.000000
node_283,0.000000,0.000000,-3541.614524,-5827.405138,0.000000,0.000000
node_284,0.000000,0.000000,-3541.599235,-5827.342270,0.000000,0.000000
node_285,0.000000,0.000000,-3541.594555,-5827.323026,0.000000,0.000000
node_286,0.000000,0.000000,-3541.586192,-5827.288641,0.000000,0.000000
node_287,0.000000,0.000000,-3541.560246,-5827.181955,0.000000,0.000000
node_288,0.000000,0.000000,-3541.539152,-5827.095584,0.000000,0.000000
node_289,0.000000,0.000000,-3541.498078,-5826.927141,0.000000,0.000000
node_290,0.000000,0.000000,-3541.446391,-5826.714201,0.000000,0.000000
node_291,0.000000,0.000000,-3542.251907,-5829.394375,0.000000,0.000000
node_292,0.000000,0.000000,-3541.456583,-5826.075270,0.000000,0.000000
node_293,7188.348031,-54.176730,-3627.194429,-6132.455801,-3444.997855,6246.323615
node_294,7199.987808,-0.001477,-3599.994887,-6234.989023,-3599.990928,6234.986562
node_295,0.000000,0.000000,-3607.603700,-5911.911755,0.000000,0.000000
node_296,0.000000,0.000000,-3607.510601,-5911.532414,0.000000,0.000000
node_297,0.000000,0.000000,-3607.448105,-5911.277771,0.000000,0.000000
node_298,0.000000,0.000000,-3607.660809,-5857.280275,0.000000,0.000000
node_299,0.000000,0.000000,-3607.603371,-5857.050524,0.000000,0.000000
node_300,0.000000,0.000000,-3607.588748,-5856.992035,0.000000,0.000000
node_301,7104.486799,-108.166851,0.000000,0.000000,0.000000,0.000000
node_302,7104.065564,-108.300997,0.000000,0.000000,0.000000,0.000000
node_303,7104.062140,-108.302045,0.000000,0.000000,0.000000,0.000000
node_304,7104.461150,-108.175040,0.000000,0.000000,0.000000,0.000000
node_305,7104.409971,-108.191250,0.000000,0.000000,0.000000,0.000000
node_306,0.000000,0.000000,0.000000,0.000000,-3308.654234,6180.280701
node_307,0.000000,0.000000,-3619.715844,-6086.950382,0.000000,0.000000
node_308,7090.707060,-118.802278,0.000000,0.000000,0.000000,0.000000
node_309,7090.468322,-118.877701,0.000000,0.000000,0.000000,0.000000
node_310,0.000000,0.000000,-3562.584301,-5917.879651,0.000000,0.000000
node_311,0.000000,0.000000,-3562.563860,-5917.794120,0.000000,0.000000
node_312,0.000000,0.000000,-3607.564776,-5856.896145,0.000000,0.000000
node_313,0.000000,0.000000,-3542.324570,-5830.260690,0.000000,0.000000
node_314,0.000000,0.000000,-3542.320503,-5830.215164,0.000000,0.000000
node_315,0.000000,0.000000,-3542.312072,-5830.120793,0.000000,0.000000
node_316,0.000000,0.000000,-3542.312014,-5830.120781,0.000000,0.000000
node_317,7164.418193,-72.827810,0.000000,0.000000,0.000000,0.000000
node_318,0.000000,0.000000,-3608.229158,-5853.163545,0.000000,0.000000
node_319,0.000000,0.000000,-3608.208679,-5853.076870,0.000000,0.000000
node_320,0.000000,0.000000,-3590.796355,-6016.335227,-3295.501321,6173.837027
node_321,0.000000,0.000000,-3590.796299,-6016.335216,0.000000,0.000000
node_322,7090.623516,-118.790899,0.000000,0.000000,0.000000,0.000000
node_323,0.000000,0.000000,-3619.798077,-6087.166189,0.000000,0.000000
node_324,0.000000,0.000000,0.000000,0.000000,-3311.014804,6182.392421
node_325,7113.752852,-103.985054,0.000000,0.000000,0.000000,0.000000
node_326,7114.426587,-103.723430,0.000000,0.000000,0.000000,0.000000
node_327,7114.978738,-103.509019,0.000000,0.000000,0.000000,0.000000
node_328,7111.961487,-104.745162,0.000000,0.000000,0.000000,0.000000
node_329,7112.568127,-104.445106,0.000000,0.000000,0.000000,0.000000
node_330,7111.274884,-105.084256,0.000000,0.000000,0.000000,0.000000
node_331,7112.568094,-104.444998,0.000000,0.000000,0.000000,0.000000
node_332,7199.974139,0.009237,-3599.978797,-6234.983159,-3599.995293,6234.964051
node_333,7199.974139,0.009237,-3599.978797,-6234.983159,-3599.995293,6234.964051
node_334,0.000000,0.000000,-3611.941757,-6069.463751,0.000000,0.000000
node_335,0.000000,0.000000,0.000000,0.000000,-3295.501321,6173.837027
node_336,0.000000,0.000000,-3607.752721,-5859.265060,0.000000,0.000000
node_337,0.000000,0.000000,-3607.752664,-5859.265049,0.000000,0.000000
node_338,7200.000000,0.000000,-3600.000000,-6235.000000,-3600.000000,6235.000000
tm_1,119.678282,-0.198150,119.678282,-0.198150,0.000000,0.000000
tm_2,119.587937,-0.215156,119.587937,-0.215156,0.000000,0.000000
tm_3,119.638880,-0.212245,119.638880,-0.212245,0.000000,0.000000
tm_4,119.602676,-0.266039,119.602676,-0.266039,0.000000,0.000000
tm_5,119.346848,-0.280830,119.346848,-0.280830,0.000000,0.000000
tm_6,118.809673,-0.209229,118.809673,-0.209229,0.000000,0.000000
tm_7,-60.030837,-103.512285,-60.030837,-103.512285,0.000000,0.000000
tm_8,-59.089768,102.974573,-59.089768,102.974573,0.000000,0.000000
tm_9,119.684856,-0.338621,119.684856,-0.338621,0.000000,0.000000
tm_10,-60.105812,-103.155033,-60.105812,-103.155033,0.000000,0.000000
tm_11,-58.698465,102.998932,-58.698465,102.998932,0.000000,0.000000
tm_12,-58.874125,103.646623,-58.874125,103.646623,0.000000,0.000000
tm_13,119.302855,-0.791791,119.302855,-0.791791,0.000000,0.000000
tm_14,-60.180331,-102.935639,-60.180331,-102.935639,0.000000,0.000000
tm_15,-58.497472,103.749850,-58.497472,103.749850,0.000000,0.000000
tm_16,-59.910776,-101.297796,-59.910776,-101.297796,0.000000,0.000000
tm_17,-56.874695,103.683833,-56.874695,103.683833,0.000000,0.000000
tm_18,-60.273495,-102.043703,-60.273495,-102.043703,0.000000,0.000000
tm_19,-56.745547,103.496678,-56.745547,103.496678,0.000000,0.000000
tm_20,-60.249189,-102.061477,-60.249189,-102.061477,0.000000,0.000000
tm_21,-56.694183,103.475720,-56.694183,103.475720,0.000000,0.000000
tm_22,-60.258737,-102.028424,-60.258737,-102.028424,0.000000,0.000000
tm_23,-56.608034,103.475441,-56.608034,103.475441,0.000000,0.000000
tm_24,-56.375789,103.365136,-56.375789,103.365136,0.000000,0.000000
tm_25,-56.375789,103.365135,-56.375789,103.365135,0.000000,0.000000
tm_26,-56.374361,103.364171,-56.374361,103.364171,0.000000,0.000000
tm_27,-56.702339,103.507488,-56.702339,103.507488,0.000000,0.000000
tm_28,-56.598107,103.468978,-56.598107,103.468978,0.000000,0.000000
tm_29,-56.653996,103.478436,-56.653996,103.478436,0.000000,0.000000
tm_30,-56.577742,103.459754,-56.577742,103.459754,0.000000,0.000000
tm_31,-56.348985,103.355076,-56.348985,103.355076,0.000000,0.000000
tm_32,-56.568041,103.455510,-56.568041,103.455510,0.000000,0.000000
tm_33,-56.560954,103.452237,-56.560954,103.452237,0.000000,0.000000
tm_34,-56.340421,103.350272,-56.340421,103.350272,0.000000,0.000000
tm_35,-56.559468,103.451667,-56.559468,103.451667,0.000000,0.000000
tm_36,-56.549694,103.447188,-56.549694,103.447188,0.000000,0.000000
tm_37,-56.549672,103.447277,-56.549672,103.447277,0.000000,0.000000
tm_38,-60.119072,-98.177371,-60.119072,-98.177371,0.000000,0.000000
tm_39,-60.107678,-98.255974,-60.107678,-98.255974,0.000000,0.000000
tm_40,-60.107793,-98.256439,-60.107793,-98.256439,0.000000,0.000000
tm_41,-60.107646,-98.255982,-60.107646,-98.255982,0.000000,0.000000
tm_42,-60.094962,-97.737174,-60.094962,-97.737174,0.000000,0.000000
tm_43,-60.084370,-98.002730,-60.084370,-98.002730,0.000000,0.000000
tm_44,-60.068560,-97.897665,-60.068560,-97.897665,0.000000,0.000000
tm_45,-60.079929,-97.771169,-60.079929,-97.771169,0.000000,0.000000
tm_46,-60.082427,-97.753446,-60.082427,-97.753446,0.000000,0.000000
tm_47,-60.082390,-97.753436,-60.082390,-97.753436,0.000000,0.000000
tm_48,-60.105757,-97.435773,-60.105757,-97.435773,0.000000,0.000000
tm_49,-60.098344,-97.545054,-60.098344,-97.545054,0.000000,0.000000
tm_50,-60.107915,-97.403354,-60.107915,-97.403354,0.000000,0.000000
tm_51,-60.082276,-97.546900,-60.082276,-97.546900,0.000000,0.000000
tm_52,-60.104846,-97.457594,-60.104846,-97.457594,0.000000,0.000000
tm_53,-60.104846,-97.457594,-60.104846,-97.457594,0.000000,0.000000
tm_54,-60.090180,-97.433694,-60.090180,-97.433694,0.000000,0.000000
tm_55,-60.097896,-97.426883,-60.097896,-97.426883,0.000000,0.000000
tm_56,-60.099467,-97.403375,-60.099467,-97.403375,0.000000,0.000000
tm_57,-60.089715,-97.402059,-60.089715,-97.402059,0.000000,0.000000
tm_58,-60.089008,-97.399224,-60.089008,-97.399224,0.000000,0.000000
tm_59,-60.117098,-97.243922,-60.117098,-97.243922,0.000000,0.000000
tm_60,-60.109823,-97.352727,-60.109823,-97.352727,0.000000,0.000000
tm_61,-60.109779,-97.353358,-60.109779,-97.353358,0.000000,0.000000
tm_62,-60.109317,-97.401097,-60.109317,-97.401097,0.000000,0.000000
tm_63,-60.117979,-97.274257,-60.117979,-97.274257,0.000000,0.000000
tm_64,-60.110743,-97.381960,-60.110743,-97.381960,0.000000,0.000000
tm_65,-60.111989,-97.366323,-60.111989,-97.366323,0.000000,0.000000
tm_66,-60.080845,-97.421179,-60.080845,-97.421179,0.000000,0.000000
tm_67,-60.092269,-97.415885,-60.092269,-97.415885,0.000000,0.000000
tm_68,-60.110277,-97.388291,-60.110277,-97.388291,0.000000,0.000000
tm_69,-60.080749,-97.288896,-60.080749,-97.288896,0.000000,0.000000
tm_70,-60.111952,-97.366313,-60.111952,-97.366313,0.000000,0.000000
tm_71,-60.118431,-97.281792,-60.118431,-97.281792,0.000000,0.000000
tm_72,-60.110607,-97.383657,-60.110607,-97.383657,0.000000,0.000000
tm_73,-60.120068,-97.260151,-60.120068,-97.260151,0.000000,0.000000
tm_74,-60.120031,-97.260141,-60.120031,-97.260141,0.000000,0.000000
tm_75,-60.120562,-97.253148,-60.120562,-97.253148,0.000000,0.000000
tm_76,-60.120596,-97.253157,-60.120596,-97.253157,0.000000,0.000000
tm_77,118.398470,-1.142501,118.398470,-1.142501,0.000000,0.000000
tm_78,-60.398531,-101.505437,-60.398531,-101.505437,0.000000,0.000000
tm_79,-56.279523,102.962141,-56.279523,102.962141,0.000000,0.000000
tm_80,119.246507,-1.209294,119.246507,-1.209294,0.000000,0.000000
tm_81,118.236839,-1.316925,118.236839,-1.316925,0.000000,0.000000
tm_82,-60.323501,-101.309719,-60.323501,-101.309719,0.000000,0.000000
tm_83,-55.824888,102.753927,-55.824888,102.753927,0.000000,0.000000
tm_84,119.086146,-1.384493,119.086146,-1.384493,0.000000,0.000000
tm_85,118.196003,-1.362006,118.196003,-1.362006,0.000000,0.000000
tm_86,-60.303873,-101.268843,-60.303873,-101.268843,0.000000,0.000000
tm_87,-55.701499,102.697610,-55.701499,102.697610,0.000000,0.000000
tm_88,-60.084137,-100.983452,-60.084137,-100.983452,0.000000,0.000000
tm_89,118.058250,-1.527047,118.058250,-1.527047,0.000000,0.000000
tm_90,-60.222917,-101.058473,-60.222917,-101.058473,0.000000,0.000000
tm_91,-55.431386,103.160139,-55.431386,103.160139,0.000000,0.000000
tm_92,118.908642,-1.596181,118.908642,-1.596181,0.000000,0.000000
tm_93,-59.750213,-100.209929,-59.750213,-100.209929,0.000000,0.000000
tm_94,118.926414,-1.577300,118.926414,-1.577300,0.000000,0.000000
tm_95,-60.188672,-100.971272,-60.188672,-100.971272,0.000000,0.000000
tm_96,118.631584,-1.754410,118.631584,-1.754410,0.000000,0.000000
tm_97,-59.764274,-100.241349,-59.764274,-100.241349,0.000000,0.000000
tm_98,-60.263754,-100.948789,-60.263754,-100.948789,0.000000,0.000000
tm_99,118.387028,-1.836850,118.387028,-1.836850,0.000000,0.000000
tm_100,-59.797422,-100.318790,-59.797422,-100.318790,0.000000,0.000000
tm_101,118.466409,-1.768821,118.466409,-1.768821,0.000000,0.000000
tm_102,-60.288389,-101.131179,-60.288389,-101.131179,0.000000,0.000000
tm_103,118.274097,-1.889725,118.274097,-1.889725,0.000000,0.000000
tm_104,118.009436,-1.930144,118.009436,-1.930144,0.000000,0.000000
tm_105,118.140794,-1.955128,118.140794,-1.955128,0.000000,0.000000
tm_106,118.140386,-1.955249,118.140386,-1.955249,0.000000,0.000000
tm_107,118.219730,-1.890675,118.219730,-1.890675,0.000000,0.000000
tm_108,118.344500,-1.825103,118.344500,-1.825103,0.000000,0.000000
tm_109,118.139259,-1.931388,118.139259,-1.931388,0.000000,0.000000
tm_110,118.174192,-1.877197,118.174192,-1.877197,0.000000,0.000000
tm_111,118.082863,-1.973795,118.082863,-1.973795,0.000000,0.000000
tm_112,118.075381,-2.008203,118.075381,-2.008203,0.000000,0.000000
tm_113,118.071104,-2.010296,118.071104,-2.010296,0.000000,0.000000
tm_114,117.891619,-2.125465,117.891619,-2.125465,0.000000,0.000000
tm_115,118.191532,-1.924503,118.191532,-1.924503,0.000000,0.000000
tm_116,118.295230,-1.870861,118.295230,-1.870861,0.000000,0.000000
tm_117,118.273880,-1.889511,118.273880,-1.889511,0.000000,0.000000
tm_118,118.157212,-1.935342,118.157212,-1.935342,0.000000,0.000000
tm_119,118.131081,-1.956337,118.131081,-1.956337,0.000000,0.000000
tm_120,118.131268,-1.956517,118.131268,-1.956517,0.000000,0.000000
tm_121,117.804834,-2.185554,117.804834,-2.185554,0.000000,0.000000
tm_122,117.925377,-2.100017,117.925377,-2.100017,0.000000,0.000000
tm_123,117.731009,-2.236886,117.731009,-2.236886,0.000000,0.000000
tm_124,117.852132,-2.150701,117.852132,-2.150701,0.000000,0.000000
tm_125,117.851038,-2.151270,117.851038,-2.151270,0.000000,0.000000
tm_126,117.836799,-2.155539,117.836799,-2.155539,0.000000,0.000000
tm_127,117.837373,-2.155600,117.837373,-2.155600,0.000000,0.000000
tm_128,117.831513,-2.157459,117.831513,-2.157459,0.000000,0.000000
tm_129,117.831844,-2.157354,117.831844,-2.157354,0.000000,0.000000
tm_130,117.859880,-2.123974,117.859880,-2.123974,0.000000,0.000000
tm_131,117.797516,-2.130811,117.797516,-2.130811,0.000000,0.000000
tm_132,117.765910,-2.178472,117.765910,-2.178472,0.000000,0.000000
tm_133,117.762592,-2.179523,117.762592,-2.179523,0.000000,0.000000
tm_134,117.786253,-2.134578,117.786253,-2.134578,0.000000,0.000000
tm_135,117.304763,-2.246319,117.304763,-2.246319,0.000000,0.000000
tm_136,-55.475193,103.175211,-55.475193,103.175211,0.000000,0.000000
tm_137,-55.518127,103.161111,-55.518127,103.161111,0.000000,0.000000
tm_138,-55.431642,103.148605,-55.431642,103.148605,0.000000,0.000000
tm_139,-55.255637,103.079590,-55.255637,103.079590,0.000000,0.000000
tm_140,-55.259120,103.080322,-55.259120,103.080322,0.000000,0.000000
tm_141,-55.260644,103.081630,-55.260644,103.081630,0.000000,0.000000
tm_142,-55.221204,103.045047,-55.221204,103.045047,0.000000,0.000000
tm_143,-55.201207,103.026330,-55.201207,103.026330,0.000000,0.000000
tm_144,-55.199445,103.024801,-55.199445,103.024801,0.000000,0.000000
tm_145,-55.183385,103.009747,-55.183385,103.009747,0.000000,0.000000
tm_146,-55.183010,103.009398,-55.183010,103.009398,0.000000,0.000000
tm_147,-55.176743,103.003567,-55.176743,103.003567,0.000000,0.000000
tm_148,-55.175411,103.002437,-55.175411,103.002437,0.000000,0.000000
tm_149,-55.175776,103.002776,-55.175776,103.002776,0.000000,0.000000
tm_150,118.808401,-1.666839,118.808401,-1.666839,0.000000,0.000000
tm_151,-59.731790,-100.157035,-59.731790,-100.157035,0.000000,0.000000
tm_152,-55.190482,102.482818,-55.190482,102.482818,0.000000,0.000000
tm_153,-60.184896,-100.893645,-60.184896,-100.893645,0.000000,0.000000
tm_154,-55.182615,103.036499,-55.182615,103.036499,0.000000,0.000000
tm_155,-59.626000,-99.941289,-59.626000,-99.941289,0.000000,0.000000
tm_156,-54.554691,102.702803,-54.554691,102.702803,0.000000,0.000000
tm_157,-55.083358,102.972678,-55.083358,102.972678,0.000000,0.000000
tm_158,-59.467451,-99.606288,-59.467451,-99.606288,0.000000,0.000000
tm_159,-54.458785,102.607994,-54.458785,102.607994,0.000000,0.000000
tm_160,-54.765126,102.712453,-54.765126,102.712453,0.000000,0.000000
tm_161,-54.738288,102.716068,-54.738288,102.716068,0.000000,0.000000
tm_162,-54.657105,102.692140,-54.657105,102.692140,0.000000,0.000000
tm_163,-54.657986,102.693073,-54.657986,102.693073,0.000000,0.000000
tm_164,-54.643666,102.679564,-54.643666,102.679564,0.000000,0.000000
tm_165,-54.642157,102.678261,-54.642157,102.678261,0.000000,0.000000
tm_166,-54.720906,102.671555,-54.720906,102.671555,0.000000,0.000000
tm_167,-54.637668,102.673950,-54.637668,102.673950,0.000000,0.000000
tm_168,-54.616422,102.654065,-54.616422,102.654065,0.000000,0.000000
tm_169,-54.616834,102.654450,-54.616834,102.654450,0.000000,0.000000
tm_170,-54.615302,102.653016,-54.615302,102.653016,0.000000,0.000000
tm_171,-54.607980,102.646163,-54.607980,102.646163,0.000000,0.000000
tm_172,-59.896064,-100.224140,-59.896064,-100.224140,0.000000,0.000000
tm_173,-54.533312,102.627596,-54.533312,102.627596,0.000000,0.000000
tm_174,-54.532927,102.627235,-54.532927,102.627235,0.000000,0.000000
tm_175,-54.617003,102.625591,-54.617003,102.625591,0.000000,0.000000
tm_176,-59.854902,-100.083637,-59.854902,-100.083637,0.000000,0.000000
tm_177,-54.300598,101.920622,-54.300598,101.920622,0.000000,0.000000
tm_178,-54.196826,102.460648,-54.196826,102.460648,0.000000,0.000000
tm_179,-59.711362,-99.513277,-59.711362,-99.513277,0.000000,0.000000
tm_180,-59.207923,-98.750531,-59.207923,-98.750531,0.000000,0.000000
tm_181,-53.961771,102.332693,-53.961771,102.332693,0.000000,0.000000
tm_182,-59.706943,-99.570467,-59.706943,-99.570467,0.000000,0.000000
tm_183,-59.709088,-99.539382,-59.709088,-99.539382,0.000000,0.000000
tm_184,-59.720775,-99.394591,-59.720775,-99.394591,0.000000,0.000000
tm_185,-59.702279,-99.533473,-59.702279,-99.533473,0.000000,0.000000
tm_186,-59.691719,-99.527845,-59.691719,-99.527845,0.000000,0.000000
tm_187,-59.691365,-99.526345,-59.691365,-99.526345,0.000000,0.000000
tm_188,-59.653847,-99.410584,-59.653847,-99.410584,0.000000,0.000000
tm_189,-59.540901,-99.070761,-59.540901,-99.070761,0.000000,0.000000
tm_190,-58.963240,-98.026177,-58.963240,-98.026177,0.000000,0.000000
tm_191,-53.674529,102.146079,-53.674529,102.146079,0.000000,0.000000
tm_192,-53.673054,102.145386,-53.673054,102.145386,0.000000,0.000000
tm_193,-53.673054,102.145386,-53.673054,102.145386,0.000000,0.000000
tm_194,-58.894561,-97.798351,-58.894561,-97.798351,0.000000,0.000000
tm_195,-53.586267,102.088566,-53.586267,102.088566,0.000000,0.000000
tm_196,-53.572746,102.022129,-53.572746,102.022129,0.000000,0.000000
tm_197,-53.582828,102.049974,-53.582828,102.049974,0.000000,0.000000
tm_198,-53.484724,102.038560,-53.484724,102.038560,0.000000,0.000000
tm_199,-53.483565,102.037461,-53.483565,102.037461,0.000000,0.000000
tm_200,-53.471451,102.025984,-53.471451,102.025984,0.000000,0.000000
tm_201,-53.471826,102.026339,-53.471826,102.026339,0.000000,0.000000
tm_202,-53.529855,102.074023,-53.529855,102.074023,0.000000,0.000000
tm_203,-59.374793,-98.464711,-59.374793,-98.464711,0.000000,0.000000
tm_204,-59.374386,-98.463011,-59.374386,-98.463011,0.000000,0.000000
tm_205,-59.374201,-98.462237,-59.374201,-98.462237,0.000000,0.000000
tm_206,-58.852678,-97.535636,-58.852678,-97.535636,0.000000,0.000000
tm_207,-53.303033,101.977131,-53.303033,101.977131,0.000000,0.000000
tm_208,-59.358942,-98.354630,-59.358942,-98.354630,0.000000,0.000000
tm_209,-59.358753,-98.353700,-59.358753,-98.353700,0.000000,0.000000
tm_210,-58.833323,-97.434174,-58.833323,-97.434174,0.000000,0.000000
tm_211,-53.285663,101.972717,-53.285663,101.972717,0.000000,0.000000
tm_212,-53.501670,102.075947,-53.501670,102.075947,0.000000,0.000000
tm_213,-53.475684,102.046135,-53.475684,102.046135,0.000000,0.000000
tm_214,-58.898954,-96.631604,-58.898954,-96.631604,0.000000,0.000000
tm_215,-59.009661,-96.977791,-59.009661,-96.977791,0.000000,0.000000
tm_216,-59.033300,-96.630472,-59.033300,-96.630472,0.000000,0.000000
tm_217,-59.021671,-96.898996,-59.021671,-96.898996,0.000000,0.000000
tm_218,-58.997644,-96.913008,-58.997644,-96.913008,0.000000,0.000000
tm_219,-59.013166,-96.864076,-59.013166,-96.864076,0.000000,0.000000
tm_220,-59.009435,-96.848765,-59.009435,-96.848765,0.000000,0.000000
tm_221,-59.009295,-96.848190,-59.009295,-96.848190,0.000000,0.000000
tm_222,-59.008861,-96.846408,-59.008861,-96.846408,0.000000,0.000000
tm_223,-59.008508,-96.844965,-59.008508,-96.844965,0.000000,0.000000
tm_224,-58.998269,-96.876757,-58.998269,-96.876757,0.000000,0.000000
tm_225,-59.006957,-96.838594,-59.006957,-96.838594,0.000000,0.000000
tm_226,-59.031911,-96.614359,-59.031911,-96.614359,0.000000,0.000000
tm_227,-58.941881,-96.750142,-58.941881,-96.750142,0.000000,0.000000
tm_228,-60.109350,-98.262775,-60.109350,-98.262775,0.000000,0.000000
tm_229,-60.106748,-98.252186,-60.106748,-98.252186,0.000000,0.000000
tm_230,118.075820,-1.976034,118.075820,-1.976034,0.000000,0.000000
tm_231,118.075575,-1.975871,118.075575,-1.975871,0.000000,0.000000
tm_232,118.082434,-1.973932,118.082434,-1.973932,0.000000,0.000000
tm_233,118.081391,-1.974022,118.081391,-1.974022,0.000000,0.000000
tm_234,-60.314583,-101.185786,-60.314583,-101.185786,0.000000,0.000000
tm_235,117.874293,-2.106486,117.874293,-2.106486,0.000000,0.000000
tm_236,117.848140,-2.151960,117.848140,-2.151960,0.000000,0.000000
tm_237,-59.350079,-98.391585,-59.350079,-98.391585,0.000000,0.000000
tm_238,-59.360265,-98.360008,-59.360265,-98.360008,0.000000,0.000000
tm_239,-60.107427,-97.344095,-60.107427,-97.344095,0.000000,0.000000
tm_240,-59.021397,-96.895492,-59.021397,-96.895492,0.000000,0.000000
tm_241,119.085264,-1.385022,119.085264,-1.385022,0.000000,0.000000
tm_242,-60.118429,-97.281792,-60.118429,-97.281792,0.000000,0.000000
tm_243,-60.118051,-97.280334,-60.118051,-97.280334,0.000000,0.000000
tm_244,-59.845059,-99.743836,-59.845059,-99.743836,0.000000,0.000000
tm_245,-54.196123,102.459197,-54.196123,102.459197,0.000000,0.000000
tm_246,-59.831988,-100.006071,-59.831988,-100.006071,0.000000,0.000000
tm_247,117.648037,-1.999255,117.648037,-1.999255,0.000000,0.000000
tm_248,-60.082756,-100.979842,-60.082756,-100.979842,0.000000,0.000000
tm_249,-54.906026,102.582135,-54.906026,102.582135,0.000000,0.000000
tm_250,-60.118171,-97.271653,-60.118171,-97.271653,0.000000,0.000000
tm_251,118.015625,-1.761368,118.015625,-1.761368,0.000000,0.000000
tn_1,119.811973,-0.157230,119.811973,-0.157230,0.000000,0.000000
tn_2,119.855533,-0.133292,119.855533,-0.133292,0.000000,0.000000
tn_3,119.817200,-0.157688,119.817200,-0.157688,0.000000,0.000000
tn_4,119.691875,-0.238792,119.691875,-0.238792,0.000000,0.000000
tn_5,119.883212,-0.117068,119.883212,-0.117068,0.000000,0.000000
tn_6,118.840519,-0.214514,118.840519,-0.214514,0.000000,0.000000
tn_7,-60.046866,-103.576945,-60.046866,-103.576945,0.000000,0.000000
tn_8,-59.100596,103.003959,-59.100596,103.003959,0.000000,0.000000
tn_9,119.872080,-0.281556,119.872080,-0.281556,0.000000,0.000000
tn_10,-60.115531,-103.193898,-60.115531,-103.193898,0.000000,0.000000
tn_11,-58.709222,103.028393,-58.709222,103.028393,0.000000,0.000000
tn_12,-58.984990,103.750650,-58.984990,103.750650,0.000000,0.000000
tn_13,119.338672,-0.781023,119.338672,-0.781023,0.000000,0.000000
tn_14,-60.204802,-103.032887,-60.204802,-103.032887,0.000000,0.000000
tn_15,-58.674469,103.916991,-58.674469,103.916991,0.000000,0.000000
tn_16,-59.931178,-101.321920,-59.931178,-101.321920,0.000000,0.000000
tn_17,-56.940802,103.747736,-56.940802,103.747736,0.000000,0.000000
tn_18,-60.290200,-102.108856,-60.290200,-102.108856,0.000000,0.000000
tn_19,-56.966283,103.710139,-56.966283,103.710139,0.000000,0.000000
tn_20,-60.274222,-102.159211,-60.274222,-102.159211,0.000000,0.000000
tn_21,-56.914937,103.689324,-56.914937,103.689324,0.000000,0.000000
tn_22,-60.275442,-102.093589,-60.275442,-102.093589,0.000000,0.000000
tn_23,-56.718381,103.582351,-56.718381,103.582351,0.000000,0.000000
tn_24,-56.442032,103.429481,-56.442032,103.429481,0.000000,0.000000
tn_25,-56.442032,103.429480,-56.442032,103.429480,0.000000,0.000000
tn_26,-56.440605,103.428516,-56.440605,103.428516,0.000000,0.000000
tn_27,-56.856815,103.656982,-56.856815,103.656982,0.000000,0.000000
tn_28,-56.708459,103.575903,-56.708459,103.575903,0.000000,0.000000
tn_29,-56.819535,103.638714,-56.819535,103.638714,0.000000,0.000000
tn_30,-56.688099,103.566708,-56.688099,103.566708,0.000000,0.000000
tn_31,-56.415230,103.419443,-56.415230,103.419443,0.000000,0.000000
tn_32,-56.678400,103.562478,-56.678400,103.562478,0.000000,0.000000
tn_33,-56.671315,103.559215,-56.671315,103.559215,0.000000,0.000000
tn_34,-56.406669,103.414646,-56.406669,103.414646,0.000000,0.000000
tn_35,-56.669828,103.558647,-56.669828,103.558647,0.000000,0.000000
tn_36,-56.660057,103.554182,-56.660057,103.554182,0.000000,0.000000
tn_37,-56.660035,103.554270,-56.660035,103.554270,0.000000,0.000000
tn_38,-60.130030,-98.217445,-60.130030,-98.217445,0.000000,0.000000
tn_39,-60.125902,-98.322737,-60.125902,-98.322737,0.000000,0.000000
tn_40,-60.126017,-98.323202,-60.126017,-98.323202,0.000000,0.000000
tn_41,-60.125870,-98.322745,-60.125870,-98.322745,0.000000,0.000000
tn_42,-60.102341,-97.763967,-60.102341,-97.763967,0.000000,0.000000
tn_43,-60.102695,-98.069608,-60.102695,-98.069608,0.000000,0.000000
tn_44,-60.090599,-97.977979,-60.090599,-97.977979,0.000000,0.000000
tn_45,-60.090985,-97.811355,-60.090985,-97.811355,0.000000,0.000000
tn_46,-60.100862,-97.820428,-60.100862,-97.820428,0.000000,0.000000
tn_47,-60.100825,-97.820418,-60.100825,-97.820418,0.000000,0.000000
tn_48,-60.116908,-97.476034,-60.116908,-97.476034,0.000000,0.000000
tn_49,-60.116878,-97.612115,-60.116878,-97.612115,0.000000,0.000000
tn_50,-60.119075,-97.443623,-60.119075,-97.443623,0.000000,0.000000
tn_51,-60.119329,-97.681035,-60.119329,-97.681035,0.000000,0.000000
tn_52,-60.123422,-97.524689,-60.123422,-97.524689,0.000000,0.000000
tn_53,-60.123422,-97.524689,-60.123422,-97.524689,0.000000,0.000000
tn_54,-60.127340,-97.567915,-60.127340,-97.567915,0.000000,0.000000
tn_55,-60.125776,-97.527548,-60.125776,-97.527548,0.000000,0.000000
tn_56,-60.127363,-97.504053,-60.127363,-97.504053,0.000000,0.000000
tn_57,-60.126903,-97.536307,-60.126903,-97.536307,0.000000,0.000000
tn_58,-60.126198,-97.533475,-60.126198,-97.533475,0.000000,0.000000
tn_59,-60.128304,-97.284229,-60.128304,-97.284229,0.000000,0.000000
tn_60,-60.128448,-97.419863,-60.128448,-97.419863,0.000000,0.000000
tn_61,-60.128403,-97.420493,-60.128403,-97.420493,0.000000,0.000000
tn_62,-60.127919,-97.468213,-60.127919,-97.468213,0.000000,0.000000
tn_63,-60.129177,-97.314556,-60.129177,-97.314556,0.000000,0.000000
tn_64,-60.129355,-97.449083,-60.129355,-97.449083,0.000000,0.000000
tn_65,-60.130608,-97.433452,-60.130608,-97.433452,0.000000,0.000000
tn_66,-60.129158,-97.595691,-60.129158,-97.595691,0.000000,0.000000
tn_67,-60.129447,-97.550119,-60.129447,-97.550119,0.000000,0.000000
tn_68,-60.128886,-97.455412,-60.128886,-97.455412,0.000000,0.000000
tn_69,-60.136671,-97.490420,-60.136671,-97.490420,0.000000,0.000000
tn_70,-60.130572,-97.433442,-60.130572,-97.433442,0.000000,0.000000
tn_71,-60.137091,-97.348953,-60.137091,-97.348953,0.000000,0.000000
tn_72,-60.129218,-97.450779,-60.129218,-97.450779,0.000000,0.000000
tn_73,-60.138738,-97.327320,-60.138738,-97.327320,0.000000,0.000000
tn_74,-60.138701,-97.327310,-60.138701,-97.327310,0.000000,0.000000
tn_75,-60.139235,-97.320319,-60.139235,-97.320319,0.000000,0.000000
tn_76,-60.139270,-97.320329,-60.139270,-97.320329,0.000000,0.000000
tn_77,118.429379,-1.148048,118.429379,-1.148048,0.000000,0.000000
tn_78,-60.429082,-101.623010,-60.429082,-101.623010,0.000000,0.000000
tn_79,-56.289861,102.992095,-56.289861,102.992095,0.000000,0.000000
tn_80,119.336182,-1.182677,119.336182,-1.182677,0.000000,0.000000
tn_81,118.267782,-1.322525,118.267782,-1.322525,0.000000,0.000000
tn_82,-60.352779,-101.422255,-60.352779,-101.422255,0.000000,0.000000
tn_83,-55.835184,102.784010,-55.835184,102.784010,0.000000,0.000000
tn_84,119.175980,-1.357973,119.175980,-1.357973,0.000000,0.000000
tn_85,118.226953,-1.367620,118.226953,-1.367620,0.000000,0.000000
tn_86,-60.331122,-101.373568,-60.331122,-101.373568,0.000000,0.000000
tn_87,-55.711784,102.727728,-55.711784,102.727728,0.000000,0.000000
tn_88,-60.170668,-101.088852,-60.170668,-101.088852,0.000000,0.000000
tn_89,118.089228,-1.532712,118.089228,-1.532712,0.000000,0.000000
tn_90,-60.257085,-101.189614,-60.257085,-101.189614,0.000000,0.000000
tn_91,-55.541710,103.268648,-55.541710,103.268648,0.000000,0.000000
tn_92,118.998655,-1.569784,118.998655,-1.569784,0.000000,0.000000
tn_93,-59.770879,-100.234189,-59.770879,-100.234189,0.000000,0.000000
tn_94,119.034409,-1.545611,119.034409,-1.545611,0.000000,0.000000
tn_95,-60.257096,-101.233752,-60.257096,-101.233752,0.000000,0.000000
tn_96,118.685739,-1.738609,118.685739,-1.738609,0.000000,0.000000
tn_97,-59.784933,-100.265603,-59.784933,-100.265603,0.000000,0.000000
tn_98,-60.274041,-100.988148,-60.274041,-100.988148,0.000000,0.000000
tn_99,118.477491,-1.810527,118.477491,-1.810527,0.000000,0.000000
tn_100,-59.818064,-100.343028,-59.818064,-100.343028,0.000000,0.000000
tn_101,118.611028,-1.726647,118.611028,-1.726647,0.000000,0.000000
tn_102,-60.305470,-101.196693,-60.305470,-101.196693,0.000000,0.000000
tn_103,118.364658,-1.863418,118.364658,-1.863418,0.000000,0.000000
tn_104,118.426991,-1.809021,118.426991,-1.809021,0.000000,0.000000
tn_105,118.231471,-1.928844,118.231471,-1.928844,0.000000,0.000000
tn_106,118.231063,-1.928964,118.231063,-1.928964,0.000000,0.000000
tn_107,118.364694,-1.848568,118.364694,-1.848568,0.000000,0.000000
tn_108,118.489288,-1.782956,118.489288,-1.782956,0.000000,0.000000
tn_109,118.275268,-1.891934,118.275268,-1.891934,0.000000,0.000000
tn_110,118.446095,-1.798185,118.446095,-1.798185,0.000000,0.000000
tn_111,118.173588,-1.947513,118.173588,-1.947513,0.000000,0.000000
tn_112,118.129824,-1.992449,118.129824,-1.992449,0.000000,0.000000
tn_113,118.125549,-1.994543,118.125549,-1.994543,0.000000,0.000000
tn_114,117.927981,-2.114984,117.927981,-2.114984,0.000000,0.000000
tn_115,118.282163,-1.898206,118.282163,-1.898206,0.000000,0.000000
tn_116,118.403878,-1.839281,118.403878,-1.839281,0.000000,0.000000
tn_117,118.364440,-1.863204,118.364440,-1.863204,0.000000,0.000000
tn_118,118.266004,-1.903787,118.266004,-1.903787,0.000000,0.000000
tn_119,118.221765,-1.930052,118.221765,-1.930052,0.000000,0.000000
tn_120,118.221952,-1.930232,118.221952,-1.930232,0.000000,0.000000
tn_121,117.859425,-2.169848,117.859425,-2.169848,0.000000,0.000000
tn_122,118.016251,-2.073800,118.016251,-2.073800,0.000000,0.000000
tn_123,117.785640,-2.221195,117.785640,-2.221195,0.000000,0.000000
tn_124,117.943072,-2.124508,117.943072,-2.124508,0.000000,0.000000
tn_125,117.941980,-2.125077,117.941980,-2.125077,0.000000,0.000000
tn_126,117.927752,-2.129346,117.927752,-2.129346,0.000000,0.000000
tn_127,117.928326,-2.129407,117.928326,-2.129407,0.000000,0.000000
tn_128,117.922471,-2.131267,117.922471,-2.131267,0.000000,0.000000
tn_129,117.922802,-2.131161,117.922802,-2.131161,0.000000,0.000000
tn_130,117.996273,-2.084656,117.996273,-2.084656,0.000000,0.000000
tn_131,117.979474,-2.078371,117.979474,-2.078371,0.000000,0.000000
tn_132,117.856923,-2.152282,117.856923,-2.152282,0.000000,0.000000
tn_133,117.853608,-2.153334,117.853608,-2.153334,0.000000,0.000000
tn_134,117.968230,-2.082139,117.968230,-2.082139,0.000000,0.000000
tn_135,117.990166,-2.049573,117.990166,-2.049573,0.000000,0.000000
tn_136,-55.607578,103.305348,-55.607578,103.305348,0.000000,0.000000
tn_137,-55.738837,103.377908,-55.738837,103.377908,0.000000,0.000000
tn_138,-55.608184,103.322225,-55.608184,103.322225,0.000000,0.000000
tn_139,-55.365998,103.188352,-55.365998,103.188352,0.000000,0.000000
tn_140,-55.369481,103.189079,-55.369481,103.189079,0.000000,0.000000
tn_141,-55.371004,103.190385,-55.371004,103.190385,0.000000,0.000000
tn_142,-55.331596,103.153865,-55.331596,103.153865,0.000000,0.000000
tn_143,-55.311616,103.135181,-55.311616,103.135181,0.000000,0.000000
tn_144,-55.309855,103.133655,-55.309855,103.133655,0.000000,0.000000
tn_145,-55.293808,103.118627,-55.293808,103.118627,0.000000,0.000000
tn_146,-55.293433,103.118278,-55.293433,103.118278,0.000000,0.000000
tn_147,-55.287171,103.112458,-55.287171,103.112458,0.000000,0.000000
tn_148,-55.285840,103.111330,-55.285840,103.111330,0.000000,0.000000
tn_149,-55.286204,103.111668,-55.286204,103.111668,0.000000,0.000000
tn_150,118.862463,-1.651020,118.862463,-1.651020,0.000000,0.000000
tn_151,-59.752469,-100.181304,-59.752469,-100.181304,0.000000,0.000000
tn_152,-55.200715,102.513079,-55.200715,102.513079,0.000000,0.000000
tn_153,-60.202032,-100.959298,-60.202032,-100.959298,0.000000,0.000000
tn_154,-55.293003,103.145370,-55.293003,103.145370,0.000000,0.000000
tn_155,-59.646725,-99.965605,-59.646725,-99.965605,0.000000,0.000000
tn_156,-54.598921,102.746723,-54.598921,102.746723,0.000000,0.000000
tn_157,-55.193790,103.081700,-55.193790,103.081700,0.000000,0.000000
tn_158,-59.488249,-99.630675,-59.488249,-99.630675,0.000000,0.000000
tn_159,-54.525181,102.673970,-54.525181,102.673970,0.000000,0.000000
tn_160,-54.986414,102.931506,-54.986414,102.931506,0.000000,0.000000
tn_161,-54.904232,102.880408,-54.904232,102.880408,0.000000,0.000000
tn_162,-54.767734,102.801813,-54.767734,102.801813,0.000000,0.000000
tn_163,-54.768614,102.802744,-54.768614,102.802744,0.000000,0.000000
tn_164,-54.754306,102.789259,-54.754306,102.789259,0.000000,0.000000
tn_165,-54.752797,102.787958,-54.752797,102.787958,0.000000,0.000000
tn_166,-54.942265,102.890753,-54.942265,102.890753,0.000000,0.000000
tn_167,-54.748312,102.783655,-54.748312,102.783655,0.000000,0.000000
tn_168,-54.727084,102.763805,-54.727084,102.763805,0.000000,0.000000
tn_169,-54.727495,102.764190,-54.727495,102.764190,0.000000,0.000000
tn_170,-54.725965,102.762758,-54.725965,102.762758,0.000000,0.000000
tn_171,-54.718649,102.755917,-54.718649,102.755917,0.000000,0.000000
tn_172,-59.913360,-100.290185,-59.913360,-100.290185,0.000000,0.000000
tn_173,-54.643975,102.737452,-54.643975,102.737452,0.000000,0.000000
tn_174,-54.643591,102.737093,-54.643591,102.737093,0.000000,0.000000
tn_175,-54.838400,102.845091,-54.838400,102.845091,0.000000,0.000000
tn_176,-59.872240,-100.149757,-59.872240,-100.149757,0.000000,0.000000
tn_177,-54.310775,101.951168,-54.310775,101.951168,0.000000,0.000000
tn_178,-54.263274,102.526861,-54.263274,102.526861,0.000000,0.000000
tn_179,-59.728881,-99.579693,-59.728881,-99.579693,0.000000,0.000000
tn_180,-59.228924,-98.775062,-59.228924,-98.775062,0.000000,0.000000
tn_181,-54.028263,102.399119,-54.028263,102.399119,0.000000,0.000000
tn_182,-59.724436,-99.636861,-59.724436,-99.636861,0.000000,0.000000
tn_183,-59.726595,-99.605787,-59.726595,-99.605787,0.000000,0.000000
tn_184,-59.731319,-99.434467,-59.731319,-99.434467,0.000000,0.000000
tn_185,-59.728539,-99.633089,-59.728539,-99.633089,0.000000,0.000000
tn_186,-59.726729,-99.660680,-59.726729,-99.660680,0.000000,0.000000
tn_187,-59.726376,-99.659182,-59.726376,-99.659182,0.000000,0.000000
tn_188,-59.671386,-99.477067,-59.671386,-99.477067,0.000000,0.000000
tn_189,-59.558538,-99.137433,-59.558538,-99.137433,0.000000,0.000000
tn_190,-58.984413,-98.050838,-58.984413,-98.050838,0.000000,0.000000
tn_191,-53.785474,102.257236,-53.785474,102.257236,0.000000,0.000000
tn_192,-53.783999,102.256545,-53.783999,102.256545,0.000000,0.000000
tn_193,-53.783999,102.256545,-53.783999,102.256545,0.000000,0.000000
tn_194,-58.915790,-97.823051,-58.915790,-97.823051,0.000000,0.000000
tn_195,-53.719447,102.222120,-53.719447,102.222120,0.000000,0.000000
tn_196,-53.850408,102.300479,-53.850408,102.300479,0.000000,0.000000
tn_197,-53.804894,102.272605,-53.804894,102.272605,0.000000,0.000000
tn_198,-53.595732,102.150008,-53.595732,102.150008,0.000000,0.000000
tn_199,-53.594573,102.148911,-53.594573,102.148911,0.000000,0.000000
tn_200,-53.582470,102.137454,-53.582470,102.137454,0.000000,0.000000
tn_201,-53.582844,102.137809,-53.582844,102.137809,0.000000,0.000000
tn_202,-53.640835,102.185398,-53.640835,102.185398,0.000000,0.000000
tn_203,-59.392622,-98.531707,-59.392622,-98.531707,0.000000,0.000000
tn_204,-59.392215,-98.530007,-59.392215,-98.530007,0.000000,0.000000
tn_205,-59.392030,-98.529234,-59.392030,-98.529234,0.000000,0.000000
tn_206,-58.873974,-97.560372,-58.873974,-97.560372,0.000000,0.000000
tn_207,-53.369641,102.044157,-53.369641,102.044157,0.000000,0.000000
tn_208,-59.376812,-98.421679,-59.376812,-98.421679,0.000000,0.000000
tn_209,-59.376624,-98.420750,-59.376624,-98.420750,0.000000,0.000000
tn_210,-58.854645,-97.458923,-58.854645,-97.458923,0.000000,0.000000
tn_211,-53.352269,102.039758,-53.352269,102.039758,0.000000,0.000000
tn_212,-53.612635,102.187357,-53.612635,102.187357,0.000000,0.000000
tn_213,-53.586678,102.157592,-53.586678,102.157592,0.000000,0.000000
tn_214,-59.039089,-97.148274,-59.039089,-97.148274,0.000000,0.000000
tn_215,-59.038989,-97.086248,-59.038989,-97.086248,0.000000,0.000000
tn_216,-59.040699,-96.657642,-59.040699,-96.657642,0.000000,0.000000
tn_217,-59.040041,-96.966809,-59.040041,-96.966809,0.000000,0.000000
tn_218,-59.034352,-97.048644,-59.034352,-97.048644,0.000000,0.000000
tn_219,-59.031549,-96.931908,-59.031549,-96.931908,0.000000,0.000000
tn_220,-59.027823,-96.916605,-59.027823,-96.916605,0.000000,0.000000
tn_221,-59.027683,-96.916031,-59.027683,-96.916031,0.000000,0.000000
tn_222,-59.027250,-96.914250,-59.027250,-96.914250,0.000000,0.000000
tn_223,-59.026898,-96.912808,-59.026898,-96.912808,0.000000,0.000000
tn_224,-59.025825,-96.978507,-59.025825,-96.978507,0.000000,0.000000
tn_225,-59.025348,-96.906440,-59.025348,-96.906440,0.000000,0.000000
tn_226,-59.039312,-96.641531,-59.039312,-96.641531,0.000000,0.000000
tn_227,-59.024698,-97.055749,-59.024698,-97.055749,0.000000,0.000000
tn_228,-60.127572,-98.329535,-60.127572,-98.329535,0.000000,0.000000
tn_229,-60.124973,-98.318951,-60.124973,-98.318951,0.000000,0.000000
tn_230,118.166551,-1.949753,118.166551,-1.949753,0.000000,0.000000
tn_231,118.166306,-1.949589,118.166306,-1.949589,0.000000,0.000000
tn_232,118.173159,-1.947650,118.173159,-1.947650,0.000000,0.000000
tn_233,118.172117,-1.947739,118.172117,-1.947739,0.000000,0.000000
tn_234,-60.331652,-101.251268,-60.331652,-101.251268,0.000000,0.000000
tn_235,118.056122,-2.054040,118.056122,-2.054040,0.000000,0.000000
tn_236,117.939084,-2.125767,117.939084,-2.125767,0.000000,0.000000
tn_237,-59.376855,-98.492141,-59.376855,-98.492141,0.000000,0.000000
tn_238,-59.378133,-98.427054,-59.378133,-98.427054,0.000000,0.000000
tn_239,-60.126055,-97.411235,-60.126055,-97.411235,0.000000,0.000000
tn_240,-59.039770,-96.963307,-59.039770,-96.963307,0.000000,0.000000
tn_241,119.175098,-1.358502,119.175098,-1.358502,0.000000,0.000000
tn_242,-60.137089,-97.348952,-60.137089,-97.348952,0.000000,0.000000
tn_243,-60.136711,-97.347496,-60.136711,-97.347496,0.000000,0.000000
...